pcf
* control data
restart  estimation
    2  2731     2     0     1
    1     1 single point   1   0   0
  5.0   2.0   0.3  0.03    10
  3.0   3.0 0.001  0
  0.1
   30  0.01     3     3  0.01     3
    1     1     1
* singular value decomposition
 1
 2   5E-7
 0
* parameter groups
t            relative 0.01  0.0  switch  2.0 parabolic
s            relative 0.01  0.0  switch  2.0 parabolic
* parameter data
t            none relative    200.000      50   500 t               1.0000        0.0000      1
s            none relative   0.200000      5.000000E-04   5.000000E-01 s               1.0000        0.0000      1
* observation groups
obsgroup
* observation data
o1                    -3.871391E-03  1.0  obsgroup
o2                    -6.496063E-03  1.0  obsgroup
o3                    -9.514436E-03  1.0  obsgroup
o4                    -1.240158E-02  1.0  obsgroup
o5                    -1.417323E-02  1.0  obsgroup
o6                    -1.561680E-02  1.0  obsgroup
o7                    -1.640420E-02  1.0  obsgroup
o8                    -1.706037E-02  1.0  obsgroup
o9                    -1.725722E-02  1.0  obsgroup
o10                   -1.758530E-02  1.0  obsgroup
o11                   -1.751969E-02  1.0  obsgroup
o12                   -1.784777E-02  1.0  obsgroup
o13                   -1.778215E-02  1.0  obsgroup
o14                   -1.830709E-02  1.0  obsgroup
o15                   -1.883202E-02  1.0  obsgroup
o16                   -1.922572E-02  1.0  obsgroup
o17                   -1.961942E-02  1.0  obsgroup
o18                   -2.020997E-02  1.0  obsgroup
o19                   -2.027559E-02  1.0  obsgroup
o20                   -2.027559E-02  1.0  obsgroup
o21                   -2.053806E-02  1.0  obsgroup
o22                   -2.080053E-02  1.0  obsgroup
o23                   -2.119423E-02  1.0  obsgroup
o24                   -2.145669E-02  1.0  obsgroup
o25                   -2.145669E-02  1.0  obsgroup
o26                   -2.112861E-02  1.0  obsgroup
o27                   -2.080053E-02  1.0  obsgroup
o28                   -2.034121E-02  1.0  obsgroup
o29                   -2.020997E-02  1.0  obsgroup
o30                   -2.020997E-02  1.0  obsgroup
o31                   -2.066929E-02  1.0  obsgroup
o32                   -2.073491E-02  1.0  obsgroup
o33                   -2.073491E-02  1.0  obsgroup
o34                   -2.020997E-02  1.0  obsgroup
o35                   -1.981627E-02  1.0  obsgroup
o36                   -1.955381E-02  1.0  obsgroup
o37                   -1.935695E-02  1.0  obsgroup
o38                   -1.955381E-02  1.0  obsgroup
o39                   -1.988189E-02  1.0  obsgroup
o40                   -2.001312E-02  1.0  obsgroup
o41                   -1.988189E-02  1.0  obsgroup
o42                   -1.988189E-02  1.0  obsgroup
o43                   -1.948819E-02  1.0  obsgroup
o44                   -1.922572E-02  1.0  obsgroup
o45                   -1.889764E-02  1.0  obsgroup
o46                   -1.870079E-02  1.0  obsgroup
o47                   -1.837270E-02  1.0  obsgroup
o48                   -1.830709E-02  1.0  obsgroup
o49                   -1.837270E-02  1.0  obsgroup
o50                   -1.870079E-02  1.0  obsgroup
o51                   -1.889764E-02  1.0  obsgroup
o52                   -1.916011E-02  1.0  obsgroup
o53                   -1.922572E-02  1.0  obsgroup
o54                   -1.909449E-02  1.0  obsgroup
o55                   -1.896325E-02  1.0  obsgroup
o56                   -1.883202E-02  1.0  obsgroup
o57                   -1.889764E-02  1.0  obsgroup
o58                   -1.863517E-02  1.0  obsgroup
o59                   -1.870079E-02  1.0  obsgroup
o60                   -1.863517E-02  1.0  obsgroup
o61                   -1.856955E-02  1.0  obsgroup
o62                   -1.804462E-02  1.0  obsgroup
o63                   -1.784777E-02  1.0  obsgroup
o64                   -1.765092E-02  1.0  obsgroup
o65                   -1.738845E-02  1.0  obsgroup
o66                   -1.732283E-02  1.0  obsgroup
o67                   -1.751969E-02  1.0  obsgroup
o68                   -1.771653E-02  1.0  obsgroup
o69                   -1.771653E-02  1.0  obsgroup
o70                   -1.804462E-02  1.0  obsgroup
o71                   -1.791339E-02  1.0  obsgroup
o72                   -1.765092E-02  1.0  obsgroup
o73                   -1.778215E-02  1.0  obsgroup
o74                   -1.784777E-02  1.0  obsgroup
o75                   -1.758530E-02  1.0  obsgroup
o76                   -1.771653E-02  1.0  obsgroup
o77                   -1.784777E-02  1.0  obsgroup
o78                   -1.745407E-02  1.0  obsgroup
o79                   -1.719160E-02  1.0  obsgroup
o80                   -1.738845E-02  1.0  obsgroup
o81                   -1.712598E-02  1.0  obsgroup
o82                   -1.699475E-02  1.0  obsgroup
o83                   -1.686352E-02  1.0  obsgroup
o84                   -1.679790E-02  1.0  obsgroup
o85                   -1.653543E-02  1.0  obsgroup
o86                   -1.653543E-02  1.0  obsgroup
o87                   -1.653543E-02  1.0  obsgroup
o88                   -1.653543E-02  1.0  obsgroup
o89                   -1.653543E-02  1.0  obsgroup
o90                   -1.640420E-02  1.0  obsgroup
o91                   -1.620735E-02  1.0  obsgroup
o92                   -1.607611E-02  1.0  obsgroup
o93                   -1.607611E-02  1.0  obsgroup
o94                   -1.587927E-02  1.0  obsgroup
o95                   -1.607611E-02  1.0  obsgroup
o96                   -1.607611E-02  1.0  obsgroup
o97                   -1.614173E-02  1.0  obsgroup
o98                   -1.614173E-02  1.0  obsgroup
o99                   -1.627297E-02  1.0  obsgroup
o100                  -1.614173E-02  1.0  obsgroup
o101                  -1.594488E-02  1.0  obsgroup
o102                  -1.574803E-02  1.0  obsgroup
o103                  -1.568242E-02  1.0  obsgroup
o104                  -1.587927E-02  1.0  obsgroup
o105                  -1.541995E-02  1.0  obsgroup
o106                  -1.561680E-02  1.0  obsgroup
o107                  -1.574803E-02  1.0  obsgroup
o108                  -1.568242E-02  1.0  obsgroup
o109                  -1.581365E-02  1.0  obsgroup
o110                  -1.633858E-02  1.0  obsgroup
o111                  -1.653543E-02  1.0  obsgroup
o112                  -1.673228E-02  1.0  obsgroup
o113                  -1.686352E-02  1.0  obsgroup
o114                  -1.673228E-02  1.0  obsgroup
o115                  -1.666667E-02  1.0  obsgroup
o116                  -1.660105E-02  1.0  obsgroup
o117                  -1.640420E-02  1.0  obsgroup
o118                  -1.653543E-02  1.0  obsgroup
o119                  -1.646982E-02  1.0  obsgroup
o120                  -1.640420E-02  1.0  obsgroup
o121                  -1.627297E-02  1.0  obsgroup
o122                  -1.640420E-02  1.0  obsgroup
o123                  -1.646982E-02  1.0  obsgroup
o124                  -1.653543E-02  1.0  obsgroup
o125                  -1.673228E-02  1.0  obsgroup
o126                  -1.686352E-02  1.0  obsgroup
o127                  -1.679790E-02  1.0  obsgroup
o128                  -1.653543E-02  1.0  obsgroup
o129                  -1.640420E-02  1.0  obsgroup
o130                  -1.607611E-02  1.0  obsgroup
o131                  -1.633858E-02  1.0  obsgroup
o132                  -1.646982E-02  1.0  obsgroup
o133                  -1.686352E-02  1.0  obsgroup
o134                  -1.699475E-02  1.0  obsgroup
o135                  -1.692913E-02  1.0  obsgroup
o136                  -1.640420E-02  1.0  obsgroup
o137                  -1.633858E-02  1.0  obsgroup
o138                  -1.581365E-02  1.0  obsgroup
o139                  -1.601050E-02  1.0  obsgroup
o140                  -1.633858E-02  1.0  obsgroup
o141                  -1.653543E-02  1.0  obsgroup
o142                  -1.633858E-02  1.0  obsgroup
o143                  -1.660105E-02  1.0  obsgroup
o144                  -1.660105E-02  1.0  obsgroup
o145                  -1.646982E-02  1.0  obsgroup
o146                  -1.692913E-02  1.0  obsgroup
o147                  -1.725722E-02  1.0  obsgroup
o148                  -1.732283E-02  1.0  obsgroup
o149                  -1.719160E-02  1.0  obsgroup
o150                  -1.725722E-02  1.0  obsgroup
o151                  -1.719160E-02  1.0  obsgroup
o152                  -1.719160E-02  1.0  obsgroup
o153                  -1.706037E-02  1.0  obsgroup
o154                  -1.699475E-02  1.0  obsgroup
o155                  -1.712598E-02  1.0  obsgroup
o156                  -1.699475E-02  1.0  obsgroup
o157                  -1.712598E-02  1.0  obsgroup
o158                  -1.725722E-02  1.0  obsgroup
o159                  -1.738845E-02  1.0  obsgroup
o160                  -1.738845E-02  1.0  obsgroup
o161                  -1.719160E-02  1.0  obsgroup
o162                  -1.706037E-02  1.0  obsgroup
o163                  -1.706037E-02  1.0  obsgroup
o164                  -1.719160E-02  1.0  obsgroup
o165                  -1.706037E-02  1.0  obsgroup
o166                  -1.751969E-02  1.0  obsgroup
o167                  -1.771653E-02  1.0  obsgroup
o168                  -1.797900E-02  1.0  obsgroup
o169                  -1.758530E-02  1.0  obsgroup
o170                  -1.745407E-02  1.0  obsgroup
o171                  -1.732283E-02  1.0  obsgroup
o172                  -1.712598E-02  1.0  obsgroup
o173                  -1.725722E-02  1.0  obsgroup
o174                  -1.758530E-02  1.0  obsgroup
o175                  -1.804462E-02  1.0  obsgroup
o176                  -1.824147E-02  1.0  obsgroup
o177                  -1.830709E-02  1.0  obsgroup
o178                  -1.797900E-02  1.0  obsgroup
o179                  -1.817585E-02  1.0  obsgroup
o180                  -1.817585E-02  1.0  obsgroup
o181                  -1.811024E-02  1.0  obsgroup
o182                  -1.850394E-02  1.0  obsgroup
o183                  -1.889764E-02  1.0  obsgroup
o184                  -1.889764E-02  1.0  obsgroup
o185                  -1.896325E-02  1.0  obsgroup
o186                  -1.889764E-02  1.0  obsgroup
o187                  -1.837270E-02  1.0  obsgroup
o188                  -1.824147E-02  1.0  obsgroup
o189                  -1.797900E-02  1.0  obsgroup
o190                  -1.797900E-02  1.0  obsgroup
o191                  -1.811024E-02  1.0  obsgroup
o192                  -1.837270E-02  1.0  obsgroup
o193                  -1.870079E-02  1.0  obsgroup
o194                  -1.896325E-02  1.0  obsgroup
o195                  -1.889764E-02  1.0  obsgroup
o196                  -1.876640E-02  1.0  obsgroup
o197                  -1.856955E-02  1.0  obsgroup
o198                  -1.830709E-02  1.0  obsgroup
o199                  -1.824147E-02  1.0  obsgroup
o200                  -1.824147E-02  1.0  obsgroup
o201                  -1.830709E-02  1.0  obsgroup
o202                  -1.863517E-02  1.0  obsgroup
o203                  -1.863517E-02  1.0  obsgroup
o204                  -1.902887E-02  1.0  obsgroup
o205                  -1.929134E-02  1.0  obsgroup
o206                  -1.975066E-02  1.0  obsgroup
o207                  -2.060367E-02  1.0  obsgroup
o208                  -2.152231E-02  1.0  obsgroup
o209                  -2.204724E-02  1.0  obsgroup
o210                  -2.250656E-02  1.0  obsgroup
o211                  -2.349081E-02  1.0  obsgroup
o212                  -2.329396E-02  1.0  obsgroup
o213                  -2.342520E-02  1.0  obsgroup
o214                  -2.342520E-02  1.0  obsgroup
o215                  -2.381890E-02  1.0  obsgroup
o216                  -2.329396E-02  1.0  obsgroup
o217                  -2.322835E-02  1.0  obsgroup
o218                  -2.290026E-02  1.0  obsgroup
o219                  -2.290026E-02  1.0  obsgroup
o220                  -2.263780E-02  1.0  obsgroup
o221                  -2.290026E-02  1.0  obsgroup
o222                  -2.322835E-02  1.0  obsgroup
o223                  -2.362205E-02  1.0  obsgroup
o224                  -2.368766E-02  1.0  obsgroup
o225                  -2.375328E-02  1.0  obsgroup
o226                  -2.342520E-02  1.0  obsgroup
o227                  -2.355643E-02  1.0  obsgroup
o228                  -2.349081E-02  1.0  obsgroup
o229                  -2.355643E-02  1.0  obsgroup
o230                  -2.368766E-02  1.0  obsgroup
o231                  -2.388451E-02  1.0  obsgroup
o232                  -2.388451E-02  1.0  obsgroup
o233                  -2.362205E-02  1.0  obsgroup
o234                  -2.375328E-02  1.0  obsgroup
o235                  -2.362205E-02  1.0  obsgroup
o236                  -2.368766E-02  1.0  obsgroup
o237                  -2.395013E-02  1.0  obsgroup
o238                  -2.440945E-02  1.0  obsgroup
o239                  -2.427822E-02  1.0  obsgroup
o240                  -2.434383E-02  1.0  obsgroup
o241                  -2.408137E-02  1.0  obsgroup
o242                  -2.395013E-02  1.0  obsgroup
o243                  -2.375328E-02  1.0  obsgroup
o244                  -2.395013E-02  1.0  obsgroup
o245                  -2.395013E-02  1.0  obsgroup
o246                  -2.401575E-02  1.0  obsgroup
o247                  -2.342520E-02  1.0  obsgroup
o248                  -2.335958E-02  1.0  obsgroup
o249                  -2.309711E-02  1.0  obsgroup
o250                  -2.303150E-02  1.0  obsgroup
o251                  -2.309711E-02  1.0  obsgroup
o252                  -2.335958E-02  1.0  obsgroup
o253                  -2.316273E-02  1.0  obsgroup
o254                  -2.316273E-02  1.0  obsgroup
o255                  -2.309711E-02  1.0  obsgroup
o256                  -2.303150E-02  1.0  obsgroup
o257                  -2.290026E-02  1.0  obsgroup
o258                  -2.303150E-02  1.0  obsgroup
o259                  -2.296588E-02  1.0  obsgroup
o260                  -2.303150E-02  1.0  obsgroup
o261                  -2.270341E-02  1.0  obsgroup
o262                  -2.290026E-02  1.0  obsgroup
o263                  -2.283465E-02  1.0  obsgroup
o264                  -2.276903E-02  1.0  obsgroup
o265                  -2.283465E-02  1.0  obsgroup
o266                  -2.303150E-02  1.0  obsgroup
o267                  -2.276903E-02  1.0  obsgroup
o268                  -2.270341E-02  1.0  obsgroup
o269                  -2.296588E-02  1.0  obsgroup
o270                  -2.290026E-02  1.0  obsgroup
o271                  -2.316273E-02  1.0  obsgroup
o272                  -2.335958E-02  1.0  obsgroup
o273                  -2.335958E-02  1.0  obsgroup
o274                  -2.322835E-02  1.0  obsgroup
o275                  -2.329396E-02  1.0  obsgroup
o276                  -2.322835E-02  1.0  obsgroup
o277                  -2.322835E-02  1.0  obsgroup
o278                  -2.329396E-02  1.0  obsgroup
o279                  -2.329396E-02  1.0  obsgroup
o280                  -2.355643E-02  1.0  obsgroup
o281                  -2.355643E-02  1.0  obsgroup
o282                  -2.355643E-02  1.0  obsgroup
o283                  -2.368766E-02  1.0  obsgroup
o284                  -2.395013E-02  1.0  obsgroup
o285                  -2.375328E-02  1.0  obsgroup
o286                  -2.368766E-02  1.0  obsgroup
o287                  -2.381890E-02  1.0  obsgroup
o288                  -2.375328E-02  1.0  obsgroup
o289                  -2.375328E-02  1.0  obsgroup
o290                  -2.362205E-02  1.0  obsgroup
o291                  -2.368766E-02  1.0  obsgroup
o292                  -2.368766E-02  1.0  obsgroup
o293                  -2.388451E-02  1.0  obsgroup
o294                  -2.381890E-02  1.0  obsgroup
o295                  -2.388451E-02  1.0  obsgroup
o296                  -2.401575E-02  1.0  obsgroup
o297                  -2.388451E-02  1.0  obsgroup
o298                  -2.362205E-02  1.0  obsgroup
o299                  -2.355643E-02  1.0  obsgroup
o300                  -2.395013E-02  1.0  obsgroup
o301                  -2.408137E-02  1.0  obsgroup
o302                  -2.473753E-02  1.0  obsgroup
o303                  -2.493438E-02  1.0  obsgroup
o304                  -2.506562E-02  1.0  obsgroup
o305                  -2.440945E-02  1.0  obsgroup
o306                  -2.414698E-02  1.0  obsgroup
o307                  -2.381890E-02  1.0  obsgroup
o308                  -2.375328E-02  1.0  obsgroup
o309                  -2.375328E-02  1.0  obsgroup
o310                  -2.440945E-02  1.0  obsgroup
o311                  -2.460630E-02  1.0  obsgroup
o312                  -2.486877E-02  1.0  obsgroup
o313                  -2.539370E-02  1.0  obsgroup
o314                  -2.598425E-02  1.0  obsgroup
o315                  -2.696850E-02  1.0  obsgroup
o316                  -2.821522E-02  1.0  obsgroup
o317                  -2.939633E-02  1.0  obsgroup
o318                  -3.051181E-02  1.0  obsgroup
o319                  -3.143045E-02  1.0  obsgroup
o320                  -3.188976E-02  1.0  obsgroup
o321                  -3.248032E-02  1.0  obsgroup
o322                  -3.267717E-02  1.0  obsgroup
o323                  -3.280840E-02  1.0  obsgroup
o324                  -3.320210E-02  1.0  obsgroup
o325                  -3.333333E-02  1.0  obsgroup
o326                  -3.339895E-02  1.0  obsgroup
o327                  -3.353018E-02  1.0  obsgroup
o328                  -3.359580E-02  1.0  obsgroup
o329                  -3.379265E-02  1.0  obsgroup
o330                  -3.412074E-02  1.0  obsgroup
o331                  -3.431759E-02  1.0  obsgroup
o332                  -3.464567E-02  1.0  obsgroup
o333                  -3.490814E-02  1.0  obsgroup
o334                  -3.471129E-02  1.0  obsgroup
o335                  -3.471129E-02  1.0  obsgroup
o336                  -3.458005E-02  1.0  obsgroup
o337                  -3.425197E-02  1.0  obsgroup
o338                  -3.431759E-02  1.0  obsgroup
o339                  -3.458005E-02  1.0  obsgroup
o340                  -3.471129E-02  1.0  obsgroup
o341                  -3.497375E-02  1.0  obsgroup
o342                  -3.517060E-02  1.0  obsgroup
o343                  -3.530184E-02  1.0  obsgroup
o344                  -3.536745E-02  1.0  obsgroup
o345                  -3.543307E-02  1.0  obsgroup
o346                  -3.523622E-02  1.0  obsgroup
o347                  -3.530184E-02  1.0  obsgroup
o348                  -3.523622E-02  1.0  obsgroup
o349                  -3.517060E-02  1.0  obsgroup
o350                  -3.510499E-02  1.0  obsgroup
o351                  -3.562992E-02  1.0  obsgroup
o352                  -3.536745E-02  1.0  obsgroup
o353                  -3.497375E-02  1.0  obsgroup
o354                  -3.484252E-02  1.0  obsgroup
o355                  -3.464567E-02  1.0  obsgroup
o356                  -3.392389E-02  1.0  obsgroup
o357                  -3.398950E-02  1.0  obsgroup
o358                  -3.530184E-02  1.0  obsgroup
o359                  -3.517060E-02  1.0  obsgroup
o360                  -3.556430E-02  1.0  obsgroup
o361                  -3.569554E-02  1.0  obsgroup
o362                  -3.648294E-02  1.0  obsgroup
o363                  -3.615486E-02  1.0  obsgroup
o364                  -3.641732E-02  1.0  obsgroup
o365                  -3.615486E-02  1.0  obsgroup
o366                  -3.648294E-02  1.0  obsgroup
o367                  -3.615486E-02  1.0  obsgroup
o368                  -3.615486E-02  1.0  obsgroup
o369                  -3.661417E-02  1.0  obsgroup
o370                  -3.707349E-02  1.0  obsgroup
o371                  -3.707349E-02  1.0  obsgroup
o372                  -3.727034E-02  1.0  obsgroup
o373                  -3.687664E-02  1.0  obsgroup
o374                  -3.707349E-02  1.0  obsgroup
o375                  -3.727034E-02  1.0  obsgroup
o376                  -3.786089E-02  1.0  obsgroup
o377                  -3.805774E-02  1.0  obsgroup
o378                  -3.792651E-02  1.0  obsgroup
o379                  -3.727034E-02  1.0  obsgroup
o380                  -3.753281E-02  1.0  obsgroup
o381                  -3.753281E-02  1.0  obsgroup
o382                  -3.740158E-02  1.0  obsgroup
o383                  -3.799213E-02  1.0  obsgroup
o384                  -3.845144E-02  1.0  obsgroup
o385                  -3.792651E-02  1.0  obsgroup
o386                  -3.746719E-02  1.0  obsgroup
o387                  -3.753281E-02  1.0  obsgroup
o388                  -3.766404E-02  1.0  obsgroup
o389                  -3.799213E-02  1.0  obsgroup
o390                  -3.818898E-02  1.0  obsgroup
o391                  -3.838583E-02  1.0  obsgroup
o392                  -3.825459E-02  1.0  obsgroup
o393                  -3.805774E-02  1.0  obsgroup
o394                  -3.759843E-02  1.0  obsgroup
o395                  -3.746719E-02  1.0  obsgroup
o396                  -3.786089E-02  1.0  obsgroup
o397                  -3.779528E-02  1.0  obsgroup
o398                  -3.792651E-02  1.0  obsgroup
o399                  -3.805774E-02  1.0  obsgroup
o400                  -3.825459E-02  1.0  obsgroup
o401                  -3.786089E-02  1.0  obsgroup
o402                  -3.805774E-02  1.0  obsgroup
o403                  -3.792651E-02  1.0  obsgroup
o404                  -3.812336E-02  1.0  obsgroup
o405                  -3.792651E-02  1.0  obsgroup
o406                  -3.799213E-02  1.0  obsgroup
o407                  -3.799213E-02  1.0  obsgroup
o408                  -3.786089E-02  1.0  obsgroup
o409                  -3.772966E-02  1.0  obsgroup
o410                  -3.786089E-02  1.0  obsgroup
o411                  -3.792651E-02  1.0  obsgroup
o412                  -3.792651E-02  1.0  obsgroup
o413                  -3.799213E-02  1.0  obsgroup
o414                  -3.786089E-02  1.0  obsgroup
o415                  -3.746719E-02  1.0  obsgroup
o416                  -3.713911E-02  1.0  obsgroup
o417                  -3.720473E-02  1.0  obsgroup
o418                  -3.746719E-02  1.0  obsgroup
o419                  -3.746719E-02  1.0  obsgroup
o420                  -3.772966E-02  1.0  obsgroup
o421                  -3.799213E-02  1.0  obsgroup
o422                  -3.772966E-02  1.0  obsgroup
o423                  -3.766404E-02  1.0  obsgroup
o424                  -3.772966E-02  1.0  obsgroup
o425                  -3.779528E-02  1.0  obsgroup
o426                  -3.766404E-02  1.0  obsgroup
o427                  -3.779528E-02  1.0  obsgroup
o428                  -3.766404E-02  1.0  obsgroup
o429                  -3.746719E-02  1.0  obsgroup
o430                  -3.733596E-02  1.0  obsgroup
o431                  -3.727034E-02  1.0  obsgroup
o432                  -3.700787E-02  1.0  obsgroup
o433                  -3.707349E-02  1.0  obsgroup
o434                  -3.746719E-02  1.0  obsgroup
o435                  -3.772966E-02  1.0  obsgroup
o436                  -3.786089E-02  1.0  obsgroup
o437                  -3.792651E-02  1.0  obsgroup
o438                  -3.799213E-02  1.0  obsgroup
o439                  -3.753281E-02  1.0  obsgroup
o440                  -3.740158E-02  1.0  obsgroup
o441                  -3.727034E-02  1.0  obsgroup
o442                  -3.746719E-02  1.0  obsgroup
o443                  -3.720473E-02  1.0  obsgroup
o444                  -3.746719E-02  1.0  obsgroup
o445                  -3.746719E-02  1.0  obsgroup
o446                  -3.727034E-02  1.0  obsgroup
o447                  -3.740158E-02  1.0  obsgroup
o448                  -3.779528E-02  1.0  obsgroup
o449                  -3.799213E-02  1.0  obsgroup
o450                  -3.799213E-02  1.0  obsgroup
o451                  -3.818898E-02  1.0  obsgroup
o452                  -3.818898E-02  1.0  obsgroup
o453                  -3.805774E-02  1.0  obsgroup
o454                  -3.799213E-02  1.0  obsgroup
o455                  -3.812336E-02  1.0  obsgroup
o456                  -3.851706E-02  1.0  obsgroup
o457                  -3.825459E-02  1.0  obsgroup
o458                  -3.812336E-02  1.0  obsgroup
o459                  -3.825459E-02  1.0  obsgroup
o460                  -3.818898E-02  1.0  obsgroup
o461                  -3.805774E-02  1.0  obsgroup
o462                  -3.772966E-02  1.0  obsgroup
o463                  -3.779528E-02  1.0  obsgroup
o464                  -3.805774E-02  1.0  obsgroup
o465                  -3.858268E-02  1.0  obsgroup
o466                  -3.864829E-02  1.0  obsgroup
o467                  -3.904200E-02  1.0  obsgroup
o468                  -3.897638E-02  1.0  obsgroup
o469                  -3.851706E-02  1.0  obsgroup
o470                  -3.805774E-02  1.0  obsgroup
o471                  -3.825459E-02  1.0  obsgroup
o472                  -3.845144E-02  1.0  obsgroup
o473                  -3.845144E-02  1.0  obsgroup
o474                  -3.845144E-02  1.0  obsgroup
o475                  -3.851706E-02  1.0  obsgroup
o476                  -3.838583E-02  1.0  obsgroup
o477                  -3.845144E-02  1.0  obsgroup
o478                  -3.858268E-02  1.0  obsgroup
o479                  -3.877953E-02  1.0  obsgroup
o480                  -3.864829E-02  1.0  obsgroup
o481                  -3.864829E-02  1.0  obsgroup
o482                  -3.864829E-02  1.0  obsgroup
o483                  -3.871391E-02  1.0  obsgroup
o484                  -3.858268E-02  1.0  obsgroup
o485                  -3.871391E-02  1.0  obsgroup
o486                  -3.871391E-02  1.0  obsgroup
o487                  -3.884514E-02  1.0  obsgroup
o488                  -3.904200E-02  1.0  obsgroup
o489                  -3.923885E-02  1.0  obsgroup
o490                  -3.963255E-02  1.0  obsgroup
o491                  -3.989501E-02  1.0  obsgroup
o492                  -3.989501E-02  1.0  obsgroup
o493                  -4.009186E-02  1.0  obsgroup
o494                  -4.035433E-02  1.0  obsgroup
o495                  -4.022310E-02  1.0  obsgroup
o496                  -4.015748E-02  1.0  obsgroup
o497                  -4.028871E-02  1.0  obsgroup
o498                  -4.009186E-02  1.0  obsgroup
o499                  -4.009186E-02  1.0  obsgroup
o500                  -4.009186E-02  1.0  obsgroup
o501                  -4.002625E-02  1.0  obsgroup
o502                  -3.982940E-02  1.0  obsgroup
o503                  -4.009186E-02  1.0  obsgroup
o504                  -3.996063E-02  1.0  obsgroup
o505                  -3.982940E-02  1.0  obsgroup
o506                  -3.982940E-02  1.0  obsgroup
o507                  -3.996063E-02  1.0  obsgroup
o508                  -3.976378E-02  1.0  obsgroup
o509                  -3.976378E-02  1.0  obsgroup
o510                  -4.002625E-02  1.0  obsgroup
o511                  -4.009186E-02  1.0  obsgroup
o512                  -4.022310E-02  1.0  obsgroup
o513                  -4.022310E-02  1.0  obsgroup
o514                  -4.009186E-02  1.0  obsgroup
o515                  -3.996063E-02  1.0  obsgroup
o516                  -4.028871E-02  1.0  obsgroup
o517                  -4.028871E-02  1.0  obsgroup
o518                  -4.028871E-02  1.0  obsgroup
o519                  -4.048557E-02  1.0  obsgroup
o520                  -4.068242E-02  1.0  obsgroup
o521                  -4.041995E-02  1.0  obsgroup
o522                  -4.061680E-02  1.0  obsgroup
o523                  -4.101050E-02  1.0  obsgroup
o524                  -4.133858E-02  1.0  obsgroup
o525                  -4.127297E-02  1.0  obsgroup
o526                  -4.166667E-02  1.0  obsgroup
o527                  -4.199475E-02  1.0  obsgroup
o528                  -4.212599E-02  1.0  obsgroup
o529                  -4.212599E-02  1.0  obsgroup
o530                  -4.251969E-02  1.0  obsgroup
o531                  -4.258530E-02  1.0  obsgroup
o532                  -4.232284E-02  1.0  obsgroup
o533                  -4.238845E-02  1.0  obsgroup
o534                  -4.245407E-02  1.0  obsgroup
o535                  -4.232284E-02  1.0  obsgroup
o536                  -4.245407E-02  1.0  obsgroup
o537                  -4.251969E-02  1.0  obsgroup
o538                  -4.232284E-02  1.0  obsgroup
o539                  -4.245407E-02  1.0  obsgroup
o540                  -4.278215E-02  1.0  obsgroup
o541                  -4.258530E-02  1.0  obsgroup
o542                  -4.258530E-02  1.0  obsgroup
o543                  -4.297900E-02  1.0  obsgroup
o544                  -4.317585E-02  1.0  obsgroup
o545                  -4.311024E-02  1.0  obsgroup
o546                  -4.324147E-02  1.0  obsgroup
o547                  -4.343832E-02  1.0  obsgroup
o548                  -4.363517E-02  1.0  obsgroup
o549                  -4.330709E-02  1.0  obsgroup
o550                  -4.311024E-02  1.0  obsgroup
o551                  -4.330709E-02  1.0  obsgroup
o552                  -4.330709E-02  1.0  obsgroup
o553                  -4.297900E-02  1.0  obsgroup
o554                  -4.330709E-02  1.0  obsgroup
o555                  -4.350394E-02  1.0  obsgroup
o556                  -4.343832E-02  1.0  obsgroup
o557                  -4.376641E-02  1.0  obsgroup
o558                  -4.402887E-02  1.0  obsgroup
o559                  -4.396326E-02  1.0  obsgroup
o560                  -4.409449E-02  1.0  obsgroup
o561                  -4.416011E-02  1.0  obsgroup
o562                  -4.389764E-02  1.0  obsgroup
o563                  -4.376641E-02  1.0  obsgroup